/*--------------------------------*- C++ -*----------------------------------*\
| =========                 |                                                 |
| \\      /  F ield         | OpenFOAM: The Open Source CFD Toolbox           |
|  \\    /   O peration     | Version:  2312                                  |
|   \\  /    A nd           | Website:  www.openfoam.com                      |
|    \\/     M anipulation  |                                                 |
\*---------------------------------------------------------------------------*/
FoamFile
{
    version     2.0;
    format      ascii;
    arch        "LSB;label=32;scalar=64";
    class       polyBoundaryMesh;
    location    "constant/polyMesh";
    object      boundary;
}
// * * * * * * * * * * * * * * * * * * * * * * * * * * * * * * * * * * * * * //

6
(
    inlet
    {
        type            patch;
        nFaces          212;
        startFace       484293;
    }
    outlet
    {
        type            patch;
        nFaces          613;
        startFace       484505;
    }
    symPlane
    {
        type            wall;
        inGroups        1(wall);
        nFaces          9812;
        startFace       485118;
    }
    body
    {
        type            wall;
        inGroups        1(wall);
        nFaces          6544;
        startFace       494930;
    }
    ground
    {
        type            wall;
        inGroups        1(wall);
        nFaces          8278;
        startFace       501474;
    }
    defaultFaces
    {
        type            patch;
        nFaces          1936;
        startFace       509752;
    }
)

// ************************************************************************* //
