FoamFile
{
    format      ascii;
    class       dictionary;
    location    "constant";
    object      RASProperties;
}

simulationType RAS;
RAS
{
    model        SpalartAllmaras;
    turbulence   on;
}
