/*--------------------------------*- C++ -*----------------------------------*\
| =========                 |                                                 |
| \\      /  F ield         | OpenFOAM: The Open Source CFD Toolbox           |
|  \\    /   O peration     | Version:  2312                                  |
|   \\  /    A nd           | Website:  www.openfoam.com                      |
|    \\/     M anipulation  |                                                 |
\*---------------------------------------------------------------------------*/
FoamFile
{
    version     2.0;
    format      ascii;
    arch        "LSB;label=32;scalar=64";
    class       dictionary;
    location    "constant/polyMesh";
    object      meshMetaDict;
}
// * * * * * * * * * * * * * * * * * * * * * * * * * * * * * * * * * * * * * //

surfaceFile     "Cut003_Geometry.fms";

surfaceMeta
{
    nPoints         690;
    nFacets         1188;
    nPatches        5;
    nFeatureEdges   666;
    patches
    {
        patch_0_0
        {
            type            empty;
            nFacets         610;
        }
        patch_0_5
        {
            type            empty;
            nFacets         364;
        }
        patch_1_0
        {
            type            empty;
            nFacets         80;
        }
        patch_2_0
        {
            type            empty;
            nFacets         67;
        }
        patch_3_0
        {
            type            empty;
            nFacets         67;
        }
    }
    pointSubsets
    {
    }
    facetSubsets
    {
    }
    featureEdgeSubsets
    {
    }
}
