/*--------------------------------*- C++ -*----------------------------------*\
|                                                                             |
|                Generated by the CfdOF workbench for FreeCAD                 |
|                      https://github.com/jaheyns/CfdOF                       |
|                                                                             |
\*---------------------------------------------------------------------------*/
FoamFile
{
    version     4.0;
    format      ascii;
    class       dictionary;
    location    "system";
    object      meshDict;
}
// * * * * * * * * * * * * * * * * * * * * * * * * * * * * * * * * * * * * * //

surfaceFile       "Cut_Geometry.fms";

maxCellSize       0.19363;
boundaryCellSize  0.19363;


surfaceMeshRefinement
{
    MeshRefinement
    {
        additionalRefinementLevels  4;
        surfaceFile "constant/triSurface/MeshRefinement.stl";
    }
    MeshRefinement001
    {
        additionalRefinementLevels  4;
        surfaceFile "constant/triSurface/MeshRefinement001.stl";
    }
    MeshRefinement002
    {
        additionalRefinementLevels  4;
        surfaceFile "constant/triSurface/MeshRefinement002.stl";
    }
    MeshRefinement003
    {
        additionalRefinementLevels  4;
        surfaceFile "constant/triSurface/MeshRefinement003.stl";
    }
    MeshRefinement004
    {
        additionalRefinementLevels  4;
        surfaceFile "constant/triSurface/MeshRefinement004.stl";
    }
    MeshRefinement005
    {
        additionalRefinementLevels  4;
        surfaceFile "constant/triSurface/MeshRefinement005.stl";
    }
    MeshRefinement008
    {
        additionalRefinementLevels  1;
        surfaceFile "constant/triSurface/MeshRefinement008.stl";
    }
    MeshRefinement009
    {
        additionalRefinementLevels  1;
        surfaceFile "constant/triSurface/MeshRefinement009.stl";
    }
    MeshRefinement010
    {
        additionalRefinementLevels  3;
        surfaceFile "constant/triSurface/MeshRefinement010.stl";
        refinementThickness 0.25;
    }
}

boundaryLayers
{
    patchBoundaryLayers
    {
        "patch_4_7"
        {
            nLayers 4;
            thicknessRatio 1.2;
        }
        "patch_5_8"
        {
            nLayers 4;
            thicknessRatio 1.2;
        }
    }

    optimiseLayer 1;
    untangleLayers 0;

    optimisationParameters
    {
        nSmoothNormals 3;
        maxNumIterations 5;
        featureSizeFactor 0.4;
        reCalculateNormals 1;
        relThicknessTol 0.1;
    }
}

// ************************************************************************* //
